 20

C    0.5562958   2.0046681   1.1311055
C   -0.7874022   2.2117088   0.7198090
C   -0.6828204   2.5032636  -0.7173494
C    0.4929892   1.8293793  -1.1356867
H    1.0135415   1.9697253   2.1258862
H   -1.6416900   2.4047669   1.3779763
H   -1.4618162   2.9085639  -1.3721725
H    0.8661035   1.5604721  -2.1298232
N    1.2715625   1.6649783   0.0005021
H    2.2030823   1.2682392   0.0147010
C   -0.1313174  -1.6332379  -1.1310664
C   -0.1620649  -3.0582751  -0.7168915
C    0.4346999  -2.8499853   0.7178805
C   -0.4773032  -1.7541127   1.1302384
H    0.0023638  -1.1149018  -2.1255590
H   -0.0925524  -3.9549727  -1.3727753
H    0.9308638  -3.5991275   1.3755691
H   -0.9094270  -1.4371432   2.1246540
N   -0.5728788  -0.9505623  -0.0015792
H   -0.8522299   0.0265531   0.0198740
 20

C    0.5531304   1.9959036   1.1313346
C   -0.7821731   2.2262866   0.7196860
C   -0.6880495   2.4886858  -0.7174724
C    0.4961546   1.8381438  -1.1354576
H    1.0061696   1.9492627   2.1260831
H   -1.6326963   2.4299568   1.3776861
H   -1.4708099   2.8833740  -1.3724627
H    0.8734754   1.5809347  -2.1296263
N    1.2715625   1.6649783   0.0004519
H    2.2030823   1.2682392   0.0132309
C   -0.1486167  -1.6392816  -1.1310250
C   -0.1322267  -3.0478606  -0.7169409
C    0.4048617  -2.8603998   0.7178311
C   -0.4600039  -1.7480690   1.1302798
H   -0.0432258  -1.1310138  -2.1255138
H   -0.0413816  -3.9371805  -1.3729150
H    0.8796930  -3.6169197   1.3754294
H   -0.8638374  -1.4210312   2.1246992
N   -0.5728788  -0.9505623  -0.0014213
H   -0.8522299   0.0265531   0.0178866
 20

C    0.5499651   1.9871392   1.1315636
C   -0.7769440   2.2408643   0.7195630
C   -0.6932786   2.4741081  -0.7175954
C    0.4993199   1.8469082  -1.1352286
H    0.9987977   1.9288000   2.1262799
H   -1.6237026   2.4551466   1.3773959
H   -1.4798036   2.8581842  -1.3727529
H    0.8808473   1.6013974  -2.1294295
N    1.2715625   1.6649783   0.0004017
H    2.2030823   1.2682392   0.0117608
C   -0.1659160  -1.6453253  -1.1309836
C   -0.1023884  -3.0374461  -0.7169904
C    0.3750234  -2.8708143   0.7177816
C   -0.4427046  -1.7420253   1.1303212
H   -0.0888153  -1.1471259  -2.1254685
H    0.0097892  -3.9193882  -1.3730547
H    0.8285222  -3.6347120   1.3752897
H   -0.8182479  -1.4049191   2.1247445
N   -0.5728788  -0.9505623  -0.0012634
H   -0.8522299   0.0265531   0.0158992
 20

C    0.5467998   1.9783748   1.1317927
C   -0.7717149   2.2554420   0.7194400
C   -0.6985077   2.4595304  -0.7177184
C    0.5024852   1.8556726  -1.1349995
H    0.9914258   1.9083373   2.1264768
H   -1.6147089   2.4803365   1.3771057
H   -1.4887973   2.8329943  -1.3730431
H    0.8882192   1.6218601  -2.1292326
N    1.2715625   1.6649783   0.0003515
H    2.2030823   1.2682392   0.0102907
C   -0.1832152  -1.6513691  -1.1309422
C   -0.0725502  -3.0270316  -0.7170398
C    0.3451852  -2.8812288   0.7177322
C   -0.4254054  -1.7359815   1.1303626
H   -0.1344048  -1.1632380  -2.1254233
H    0.0609600  -3.9015959  -1.3731944
H    0.7773514  -3.6525043   1.3751500
H   -0.7726584  -1.3888070   2.1247897
N   -0.5728788  -0.9505623  -0.0011055
H   -0.8522299   0.0265531   0.0139118
 20

C    0.5436345   1.9696103   1.1320218
C   -0.7664859   2.2700198   0.7193171
C   -0.7037367   2.4449526  -0.7178413
C    0.5056505   1.8644371  -1.1347704
H    0.9840539   1.8878747   2.1266736
H   -1.6057152   2.5055263   1.3768156
H   -1.4977910   2.8078045  -1.3733332
H    0.8955911   1.6423227  -2.1290358
N    1.2715625   1.6649783   0.0003013
H    2.2030823   1.2682392   0.0088206
C   -0.2005145  -1.6574128  -1.1309008
C   -0.0427119  -3.0166171  -0.7170893
C    0.3153469  -2.8916433   0.7176827
C   -0.4081061  -1.7299378   1.1304040
H   -0.1799944  -1.1793501  -2.1253780
H    0.1121308  -3.8838037  -1.3733341
H    0.7261806  -3.6702965   1.3750103
H   -0.7270688  -1.3726949   2.1248350
N   -0.5728788  -0.9505623  -0.0009475
H   -0.8522299   0.0265531   0.0119244
 20

C    0.5404691   1.9608459   1.1322508
C   -0.7612568   2.2845975   0.7191941
C   -0.7089658   2.4303749  -0.7179643
C    0.5088159   1.8732015  -1.1345414
H    0.9766820   1.8674120   2.1268705
H   -1.5967216   2.5307162   1.3765254
H   -1.5067846   2.7826146  -1.3736234
H    0.9029630   1.6627854  -2.1288389
N    1.2715625   1.6649783   0.0002511
H    2.2030823   1.2682392   0.0073505
C   -0.2178138  -1.6634566  -1.1308594
C   -0.0128737  -3.0062026  -0.7171387
C    0.2855087  -2.9020578   0.7176333
C   -0.3908068  -1.7238940   1.1304454
H   -0.2255839  -1.1954621  -2.1253328
H    0.1633017  -3.8660114  -1.3734737
H    0.6750097  -3.6880888   1.3748707
H   -0.6814793  -1.3565829   2.1248802
N   -0.5728788  -0.9505623  -0.0007896
H   -0.8522299   0.0265531   0.0099370
 20

C    0.5373038   1.9520815   1.1324799
C   -0.7560277   2.2991753   0.7190711
C   -0.7141949   2.4157971  -0.7180873
C    0.5119812   1.8819659  -1.1343123
H    0.9693101   1.8469494   2.1270673
H   -1.5877279   2.5559060   1.3762352
H   -1.5157783   2.7574248  -1.3739136
H    0.9103349   1.6832480  -2.1286421
N    1.2715625   1.6649783   0.0002008
H    2.2030823   1.2682392   0.0058804
C   -0.2351131  -1.6695003  -1.1308180
C    0.0169645  -2.9957881  -0.7171882
C    0.2556705  -2.9124723   0.7175838
C   -0.3735075  -1.7178503   1.1304868
H   -0.2711734  -1.2115742  -2.1252875
H    0.2144725  -3.8482192  -1.3736134
H    0.6238389  -3.7058810   1.3747310
H   -0.6358898  -1.3404708   2.1249255
N   -0.5728788  -0.9505623  -0.0006317
H   -0.8522299   0.0265531   0.0079496
 20

C    0.5341385   1.9433170   1.1327089
C   -0.7507986   2.3137530   0.7189481
C   -0.7194240   2.4012194  -0.7182103
C    0.5151465   1.8907304  -1.1340833
H    0.9619382   1.8264867   2.1272642
H   -1.5787342   2.5810959   1.3759450
H   -1.5247720   2.7322349  -1.3742038
H    0.9177068   1.7037107  -2.1284452
N    1.2715625   1.6649783   0.0001506
H    2.2030823   1.2682392   0.0044103
C   -0.2524124  -1.6755441  -1.1307766
C    0.0468028  -2.9853737  -0.7172376
C    0.2258322  -2.9228867   0.7175344
C   -0.3562082  -1.7118065   1.1305282
H   -0.3167630  -1.2276863  -2.1252423
H    0.2656433  -3.8304269  -1.3737531
H    0.5726681  -3.7236733   1.3745913
H   -0.5903002  -1.3243587   2.1249707
N   -0.5728788  -0.9505623  -0.0004738
H   -0.8522299   0.0265531   0.0059622
 20

C    0.5309732   1.9345526   1.1329380
C   -0.7455695   2.3283307   0.7188252
C   -0.7246531   2.3866417  -0.7183332
C    0.5183118   1.8994948  -1.1338542
H    0.9545663   1.8060240   2.1274610
H   -1.5697405   2.6062857   1.3756548
H   -1.5337657   2.7070451  -1.3744940
H    0.9250787   1.7241734  -2.1282484
N    1.2715625   1.6649783   0.0001004
H    2.2030823   1.2682392   0.0029402
C   -0.2697117  -1.6815878  -1.1307352
C    0.0766410  -2.9749592  -0.7172871
C    0.1959940  -2.9333012   0.7174849
C   -0.3389089  -1.7057628   1.1305696
H   -0.3623525  -1.2437984  -2.1251970
H    0.3168141  -3.8126346  -1.3738928
H    0.5214973  -3.7414656   1.3744516
H   -0.5447107  -1.3082466   2.1250160
N   -0.5728788  -0.9505623  -0.0003158
H   -0.8522299   0.0265531   0.0039748
 20

C    0.5278078   1.9257881   1.1331670
C   -0.7403404   2.3429085   0.7187022
C   -0.7298822   2.3720639  -0.7184562
C    0.5214772   1.9082593  -1.1336252
H    0.9471944   1.7855614   2.1276579
H   -1.5607468   2.6314756   1.3753646
H   -1.5427594   2.6818552  -1.3747842
H    0.9324506   1.7446360  -2.1280515
N    1.2715625   1.6649783   0.0000502
H    2.2030823   1.2682392   0.0014701
C   -0.2870110  -1.6876316  -1.1306938
C    0.1064793  -2.9645447  -0.7173365
C    0.1661557  -2.9437157   0.7174355
C   -0.3216096  -1.6997190   1.1306110
H   -0.4079421  -1.2599104  -2.1251518
H    0.3679849  -3.7948424  -1.3740325
H    0.4703265  -3.7592578   1.3743119
H   -0.4991211  -1.2921346   2.1250612
N   -0.5728788  -0.9505623  -0.0001579
H   -0.8522299   0.0265531   0.0019874
 20

C    0.5246425   1.9170237   1.1333961
C   -0.7351113   2.3574862   0.7185792
C   -0.7351113   2.3574862  -0.7185792
C    0.5246425   1.9170237  -1.1333961
H    0.9398225   1.7650987   2.1278547
H   -1.5517531   2.6566654   1.3750744
H   -1.5517531   2.6566654  -1.3750744
H    0.9398225   1.7650987  -2.1278547
N    1.2715625   1.6649783   0.0000000
H    2.2030823   1.2682392   0.0000000
C   -0.3043103  -1.6936753  -1.1306524
C    0.1363175  -2.9541302  -0.7173860
C    0.1363175  -2.9541302   0.7173860
C   -0.3043103  -1.6936753   1.1306524
H   -0.4535316  -1.2760225  -2.1251065
H    0.4191557  -3.7770501  -1.3741722
H    0.4191557  -3.7770501   1.3741722
H   -0.4535316  -1.2760225   2.1251065
N   -0.5728788  -0.9505623   0.0000000
H   -0.8522299   0.0265531   0.0000000
 20

C    0.5214772   1.9082593   1.1336252
C   -0.7298822   2.3720639   0.7184562
C   -0.7403404   2.3429085  -0.7187022
C    0.5278078   1.9257881  -1.1331670
H    0.9324506   1.7446360   2.1280515
H   -1.5427594   2.6818552   1.3747842
H   -1.5607468   2.6314756  -1.3753646
H    0.9471944   1.7855614  -2.1276579
N    1.2715625   1.6649783  -0.0000502
H    2.2030823   1.2682392  -0.0014701
C   -0.3216096  -1.6997190  -1.1306110
C    0.1661557  -2.9437157  -0.7174355
C    0.1064793  -2.9645447   0.7173365
C   -0.2870110  -1.6876316   1.1306938
H   -0.4991211  -1.2921346  -2.1250612
H    0.4703265  -3.7592578  -1.3743119
H    0.3679849  -3.7948424   1.3740325
H   -0.4079421  -1.2599104   2.1251518
N   -0.5728788  -0.9505623   0.0001579
H   -0.8522299   0.0265531  -0.0019874
 20

C    0.5183118   1.8994948   1.1338542
C   -0.7246531   2.3866417   0.7183332
C   -0.7455695   2.3283307  -0.7188252
C    0.5309732   1.9345526  -1.1329380
H    0.9250787   1.7241734   2.1282484
H   -1.5337657   2.7070451   1.3744940
H   -1.5697405   2.6062857  -1.3756548
H    0.9545663   1.8060240  -2.1274610
N    1.2715625   1.6649783  -0.0001004
H    2.2030823   1.2682392  -0.0029402
C   -0.3389089  -1.7057628  -1.1305696
C    0.1959940  -2.9333012  -0.7174849
C    0.0766410  -2.9749592   0.7172871
C   -0.2697117  -1.6815878   1.1307352
H   -0.5447107  -1.3082466  -2.1250160
H    0.5214973  -3.7414656  -1.3744516
H    0.3168141  -3.8126346   1.3738928
H   -0.3623525  -1.2437984   2.1251970
N   -0.5728788  -0.9505623   0.0003158
H   -0.8522299   0.0265531  -0.0039748
 20

C    0.5151465   1.8907304   1.1340833
C   -0.7194240   2.4012194   0.7182103
C   -0.7507986   2.3137530  -0.7189481
C    0.5341385   1.9433170  -1.1327089
H    0.9177068   1.7037107   2.1284452
H   -1.5247720   2.7322349   1.3742038
H   -1.5787342   2.5810959  -1.3759450
H    0.9619382   1.8264867  -2.1272642
N    1.2715625   1.6649783  -0.0001506
H    2.2030823   1.2682392  -0.0044103
C   -0.3562082  -1.7118065  -1.1305282
C    0.2258322  -2.9228867  -0.7175344
C    0.0468028  -2.9853737   0.7172376
C   -0.2524124  -1.6755441   1.1307766
H   -0.5903002  -1.3243587  -2.1249707
H    0.5726681  -3.7236733  -1.3745913
H    0.2656433  -3.8304269   1.3737531
H   -0.3167630  -1.2276863   2.1252423
N   -0.5728788  -0.9505623   0.0004738
H   -0.8522299   0.0265531  -0.0059622
 20

C    0.5119812   1.8819659   1.1343123
C   -0.7141949   2.4157971   0.7180873
C   -0.7560277   2.2991753  -0.7190711
C    0.5373038   1.9520815  -1.1324799
H    0.9103349   1.6832480   2.1286421
H   -1.5157783   2.7574248   1.3739136
H   -1.5877279   2.5559060  -1.3762352
H    0.9693101   1.8469494  -2.1270673
N    1.2715625   1.6649783  -0.0002008
H    2.2030823   1.2682392  -0.0058804
C   -0.3735075  -1.7178503  -1.1304868
C    0.2556705  -2.9124723  -0.7175838
C    0.0169645  -2.9957881   0.7171882
C   -0.2351131  -1.6695003   1.1308180
H   -0.6358898  -1.3404708  -2.1249255
H    0.6238389  -3.7058810  -1.3747310
H    0.2144725  -3.8482192   1.3736134
H   -0.2711734  -1.2115742   2.1252875
N   -0.5728788  -0.9505623   0.0006317
H   -0.8522299   0.0265531  -0.0079496
 20

C    0.5088159   1.8732015   1.1345414
C   -0.7089658   2.4303749   0.7179643
C   -0.7612568   2.2845975  -0.7191941
C    0.5404691   1.9608459  -1.1322508
H    0.9029630   1.6627854   2.1288389
H   -1.5067846   2.7826146   1.3736234
H   -1.5967216   2.5307162  -1.3765254
H    0.9766820   1.8674120  -2.1268705
N    1.2715625   1.6649783  -0.0002511
H    2.2030823   1.2682392  -0.0073505
C   -0.3908068  -1.7238940  -1.1304454
C    0.2855087  -2.9020578  -0.7176333
C   -0.0128737  -3.0062026   0.7171387
C   -0.2178138  -1.6634566   1.1308594
H   -0.6814793  -1.3565829  -2.1248802
H    0.6750097  -3.6880888  -1.3748707
H    0.1633017  -3.8660114   1.3734737
H   -0.2255839  -1.1954621   2.1253328
N   -0.5728788  -0.9505623   0.0007896
H   -0.8522299   0.0265531  -0.0099370
 20

C    0.5056505   1.8644371   1.1347704
C   -0.7037367   2.4449526   0.7178413
C   -0.7664859   2.2700198  -0.7193171
C    0.5436345   1.9696103  -1.1320218
H    0.8955911   1.6423227   2.1290358
H   -1.4977910   2.8078045   1.3733332
H   -1.6057152   2.5055263  -1.3768156
H    0.9840539   1.8878747  -2.1266736
N    1.2715625   1.6649783  -0.0003013
H    2.2030823   1.2682392  -0.0088206
C   -0.4081061  -1.7299378  -1.1304040
C    0.3153469  -2.8916433  -0.7176827
C   -0.0427119  -3.0166171   0.7170893
C   -0.2005145  -1.6574128   1.1309008
H   -0.7270688  -1.3726949  -2.1248350
H    0.7261806  -3.6702965  -1.3750103
H    0.1121308  -3.8838037   1.3733341
H   -0.1799944  -1.1793501   2.1253780
N   -0.5728788  -0.9505623   0.0009475
H   -0.8522299   0.0265531  -0.0119244
 20

C    0.5024852   1.8556726   1.1349995
C   -0.6985077   2.4595304   0.7177184
C   -0.7717149   2.2554420  -0.7194400
C    0.5467998   1.9783748  -1.1317927
H    0.8882192   1.6218601   2.1292326
H   -1.4887973   2.8329943   1.3730431
H   -1.6147089   2.4803365  -1.3771057
H    0.9914258   1.9083373  -2.1264768
N    1.2715625   1.6649783  -0.0003515
H    2.2030823   1.2682392  -0.0102907
C   -0.4254054  -1.7359815  -1.1303626
C    0.3451852  -2.8812288  -0.7177322
C   -0.0725502  -3.0270316   0.7170398
C   -0.1832152  -1.6513691   1.1309422
H   -0.7726584  -1.3888070  -2.1247897
H    0.7773514  -3.6525043  -1.3751500
H    0.0609600  -3.9015959   1.3731944
H   -0.1344048  -1.1632380   2.1254233
N   -0.5728788  -0.9505623   0.0011055
H   -0.8522299   0.0265531  -0.0139118
 20

C    0.4993199   1.8469082   1.1352286
C   -0.6932786   2.4741081   0.7175954
C   -0.7769440   2.2408643  -0.7195630
C    0.5499651   1.9871392  -1.1315636
H    0.8808473   1.6013974   2.1294295
H   -1.4798036   2.8581842   1.3727529
H   -1.6237026   2.4551466  -1.3773959
H    0.9987977   1.9288000  -2.1262799
N    1.2715625   1.6649783  -0.0004017
H    2.2030823   1.2682392  -0.0117608
C   -0.4427046  -1.7420253  -1.1303212
C    0.3750234  -2.8708143  -0.7177816
C   -0.1023884  -3.0374461   0.7169904
C   -0.1659160  -1.6453253   1.1309836
H   -0.8182479  -1.4049191  -2.1247445
H    0.8285222  -3.6347120  -1.3752897
H    0.0097892  -3.9193882   1.3730547
H   -0.0888153  -1.1471259   2.1254685
N   -0.5728788  -0.9505623   0.0012634
H   -0.8522299   0.0265531  -0.0158992
 20

C    0.4961546   1.8381438   1.1354576
C   -0.6880495   2.4886858   0.7174724
C   -0.7821731   2.2262866  -0.7196860
C    0.5531304   1.9959036  -1.1313346
H    0.8734754   1.5809347   2.1296263
H   -1.4708099   2.8833740   1.3724627
H   -1.6326963   2.4299568  -1.3776861
H    1.0061696   1.9492627  -2.1260831
N    1.2715625   1.6649783  -0.0004519
H    2.2030823   1.2682392  -0.0132309
C   -0.4600039  -1.7480690  -1.1302798
C    0.4048617  -2.8603998  -0.7178311
C   -0.1322267  -3.0478606   0.7169409
C   -0.1486167  -1.6392816   1.1310250
H   -0.8638374  -1.4210312  -2.1246992
H    0.8796930  -3.6169197  -1.3754294
H   -0.0413816  -3.9371805   1.3729150
H   -0.0432258  -1.1310138   2.1255138
N   -0.5728788  -0.9505623   0.0014213
H   -0.8522299   0.0265531  -0.0178866
 20

C    0.4929892   1.8293793   1.1356867
C   -0.6828204   2.5032636   0.7173494
C   -0.7874022   2.2117088  -0.7198090
C    0.5562958   2.0046681  -1.1311055
H    0.8661035   1.5604721   2.1298232
H   -1.4618162   2.9085639   1.3721725
H   -1.6416900   2.4047669  -1.3779763
H    1.0135415   1.9697253  -2.1258862
N    1.2715625   1.6649783  -0.0005021
H    2.2030823   1.2682392  -0.0147010
C   -0.4773032  -1.7541127  -1.1302384
C    0.4346999  -2.8499853  -0.7178805
C   -0.1620649  -3.0582751   0.7168915
C   -0.1313174  -1.6332379   1.1310664
H   -0.9094270  -1.4371432  -2.1246540
H    0.9308638  -3.5991275  -1.3755691
H   -0.0925524  -3.9549727   1.3727753
H    0.0023638  -1.1149018   2.1255590
N   -0.5728788  -0.9505623   0.0015792
H   -0.8522299   0.0265531  -0.0198740
