10

C     0.5246425    1.9170237    1.1333961 
C    -0.7351113    2.3574862    0.7185792 
C    -0.7351113    2.3574862   -0.7185792 
C     0.5246425    1.9170237   -1.1333961 
H     0.9398225    1.7650987    2.1278547 
H    -1.5517531    2.6566654    1.3750744 
H    -1.5517531    2.6566654   -1.3750744 
H     0.9398225    1.7650987   -2.1278547 
N     1.2715625    1.6649783    0.0000000 
H     2.2030823    1.2682392    0.0000000 

